
Circuit: ***** spice netlist for cell 'lab6_prelab_sue' *****

Doing analysis at TEMP = 27.000000 and TNOM = 27.000000

No. of Data Columns : 8  

No. of Data Rows : 543
CPU time since last call: 0.008 seconds.

Total CPU time: 0.008 seconds.

Total DRAM available = 15954.636719 MB.
DRAM currently available = 10987.574219 MB.
Total ngspice program size = 9.960938 MB.
Resident set size = 2.282227 MB.
Shared ngspice pages = 1.185547 MB.
Text (code) pages = 1.184570 MB.
Stack = 0 bytes.
Library pages = 5.949219 MB.

