
Circuit: ***** spice netlist for cell 'lab4_sue' *****

Reducing trtol to 1 for xspice 'A' devices
Doing analysis at TEMP = 27.000000 and TNOM = 27.000000

No. of Data Columns : 29  

No. of Data Rows : 1
No. of Data Columns : 30  

Initial Transient Solution
--------------------------

Node                                   Voltage
----                                   -------
vin                                          0
n0                                 1.09704e-05
vout                               6.27196e-05
n1                                          10
n2                                         -10
xi0.11                                -9.65456
xi0.12                                -9.65455
xi0.6                             -9.33513e-09
xi0.7                              6.43711e-05
xi0.53                                     7.8
xi0.54                                    -7.8
xi0.90                             1.10105e-05
xi0.91                                      25
xi0.92                                     -25
xi0.99                                       0
xi0.10                               -0.398582
xi0.9                                        0
xi0.8                              6.43711e-05
h.xi0.hlim#branch                 -3.08289e-30
v.xi0.vlim#branch                  1.10105e-08
v.xi0.vln#branch                        -8e-16
v.xi0.vlp#branch                        -8e-16
v.xi0.ve#branch                          8e-16
v.xi0.vc#branch                          8e-16
v.xi0.vb#branch                   -9.33513e-14
v0#branch                          1.09704e-08
v2#branch                            0.0095281
v1#branch                          -0.00952771
a$poly$e.xi0.egnd#branch_1_0      -3.99492e-07


No. of Data Rows : 28391
CPU time since last call: 0.696 seconds.

Total CPU time: 0.696 seconds.

Total DRAM available = 15954.636719 MB.
DRAM currently available = 13517.214844 MB.
Total ngspice program size = 10.000000 MB.
Resident set size = 2.400391 MB.
Shared ngspice pages = 1.255859 MB.
Text (code) pages = 1.184570 MB.
Stack = 0 bytes.
Library pages = 5.988281 MB.

***** Operating Point Values (Generated from .op Statement) *****

                      vin = 0.000e+00
                      n0 = 1.097e-05
                      vout = 6.272e-05
                      n1 = 1.000e+01
                      n2 = -1.000e+01
                      xi0_11 = -9.655e+00
                      xi0_12 = -9.655e+00
                      xi0_6 = -9.335e-09
                      xi0_7 = 6.437e-05
                      xi0_53 = 7.800e+00
                      xi0_54 = -7.800e+00
                      xi0_90 = 1.101e-05
                      xi0_91 = 2.500e+01
                      xi0_92 = -2.500e+01
                      xi0_99 = 0.000e+00
                      xi0_10 = -3.986e-01
                      xi0_9 = 0.000e+00
                      xi0_8 = 6.437e-05
                      i_h_xi0_hlim = -3.083e-30
                      i_v_xi0_vlim = 1.101e-08
                      i_v_xi0_vln = -8.000e-16
                      i_v_xi0_vlp = -8.000e-16
                      i_v_xi0_ve = 8.000e-16
                      i_v_xi0_vc = 8.000e-16
                      i_v_xi0_vb = -9.335e-14
                      i_v0 = 1.097e-08
                      i_v2 = 9.528e-03
                      i_v1 = -9.528e-03
                      i_a$poly$e_xi0_egnd = -3.995e-07

***************** End of Operating Point Values ******************
