
Circuit: ***** spice netlist for cell 'lab9_prelab_sue' *****

Doing analysis at TEMP = 27.000000 and TNOM = 27.000000

No. of Data Columns : 47  

No. of Data Rows : 1
No. of Data Columns : 48  

Initial Transient Solution
--------------------------

Node                                   Voltage
----                                   -------
vout                                   11.2145
xi0.n0                                      12
n0                                          12
n1                                   0.0652204
xi0.vc2                                      4
xi0.vc1                                      0
xi0.x0.9                             0.0652193
xi0.x0.7                                     4
xi0.x0.8                             0.0131907
xi0.x0.4                                     0
xi0.x0.5                             -0.251821
xi0.x0.10                             -3.93478
xi0.x0.11                             -0.25181
xi0.x0.6                              -0.25181
xi0.x1.9                                    12
xi0.x1.7                           2.17667e-32
xi0.x1.8                           1.32628e-11
xi0.x1.4                                     0
xi0.x1.5                                    12
xi0.x1.10                                   12
xi0.x1.11                                   12
xi0.x1.6                                    12
xi1.x0.9                               11.8869
xi1.x0.7                             0.0652204
xi1.x0.8                           1.18887e-05
xi1.n3                             1.18887e-05
xi1.n2                                 11.8869
xi1.n1                               0.0652204
xi1.x0.4                                     0
xi1.x0.5                               11.8217
xi1.x0.10                              11.8217
xi1.x0.11                              11.8217
xi1.x0.6                               11.8217
xi1.n0                                 11.8869
xi1.n5                                 5.60723
xi1.n4                                 5.60723
v.xi1.x0.vfi1#branch                         0
v.xi1.x0.vfi2#branch                9.9824e-33
v.xi0.x1.vfi1#branch                         0
v.xi0.x1.vfi2#branch               9.98318e-33
v.xi0.x0.vfi1#branch                         0
v.xi0.x0.vfi2#branch              -2.14977e-33
l.xi1.l0#branch                     -0.0231225
e.xi1.x0.ev16#branch                    -2e-10
e.xi0.x1.ev16#branch                    -2e-10
e.xi0.x0.ev16#branch                   7.36593
v0#branch                           -0.0353906


No. of Data Rows : 35505
CPU time since last call: 3.308 seconds.

Total CPU time: 3.308 seconds.

Total DRAM available = 15954.636719 MB.
DRAM currently available = 11142.078125 MB.
Total ngspice program size = 10.031250 MB.
Resident set size = 2.411133 MB.
Shared ngspice pages = 1.270508 MB.
Text (code) pages = 1.184570 MB.
Stack = 0 bytes.
Library pages = 6.019531 MB.

***** Operating Point Values (Generated from .op Statement) *****

                      vout = 1.121e+01
                      xi0_n0 = 6.522e-02
                      n0 = 1.200e+01
                      n1 = 6.522e-02
                      xi0_vc2 = 4.000e+00
                      xi0_vc1 = 4.000e+00
                      xi0_x0_9 = 6.522e-02
                      xi0_x0_7 = 4.000e+00
                      xi0_x0_8 = 1.319e-02
                      xi0_x0_4 = 0.000e+00
                      xi0_x0_5 = -2.518e-01
                      xi0_x0_10 = -3.935e+00
                      xi0_x0_11 = -2.518e-01
                      xi0_x0_6 = -2.518e-01
                      xi0_x1_9 = 6.522e-02
                      xi0_x1_7 = 4.000e+00
                      xi0_x1_8 = 1.319e-02
                      xi0_x1_4 = 0.000e+00
                      xi0_x1_5 = -2.518e-01
                      xi0_x1_10 = -3.935e+00
                      xi0_x1_11 = -2.518e-01
                      xi0_x1_6 = -2.518e-01
                      xi1_x0_9 = 1.189e+01
                      xi1_x0_7 = 6.522e-02
                      xi1_x0_8 = 1.189e-05
                      xi1_n3 = 1.189e-05
                      xi1_n2 = 1.189e+01
                      xi1_n1 = 6.522e-02
                      xi1_x0_4 = 0.000e+00
                      xi1_x0_5 = 1.182e+01
                      xi1_x0_10 = 1.182e+01
                      xi1_x0_11 = 1.182e+01
                      xi1_x0_6 = 1.182e+01
                      xi1_n0 = 1.189e+01
                      xi1_n5 = 5.607e+00
                      xi1_n4 = 5.607e+00
                      i_v_xi1_x0_vfi1 = 0.000e+00
                      i_v_xi1_x0_vfi2 = 9.982e-33
                      i_v_xi0_x1_vfi1 = 0.000e+00
                      i_v_xi0_x1_vfi2 = -2.150e-33
                      i_v_xi0_x0_vfi1 = 0.000e+00
                      i_v_xi0_x0_vfi2 = -2.150e-33
                      i_l_xi1_l0 = -2.312e-02
                      i_e_xi1_x0_ev16 = -2.000e-10
                      i_e_xi0_x1_ev16 = 7.366e+00
                      i_e_xi0_x0_ev16 = 7.366e+00
                      i_v0 = -4.726e-02

***************** End of Operating Point Values ******************
