
Circuit: ***** spice netlist for cell 'lab10_prelab_sue' *****

Doing analysis at TEMP = 27.000000 and TNOM = 27.000000

No. of Data Columns : 30  

No. of Data Rows : 1
No. of Data Columns : 31  

Initial Transient Solution
--------------------------

Node                                   Voltage
----                                   -------
n0                                          12
vc1                                         12
vout                                        12
xi0.n0                                      12
vin                                  0.0652204
xi0.vc2                                      4
xi0.vc1                                      0
xi0.x0.9                             0.0652193
xi0.x0.7                                     4
xi0.x0.8                             0.0131907
xi0.x0.4                                     0
xi0.x0.5                             -0.251821
xi0.x0.10                             -3.93478
xi0.x0.11                             -0.25181
xi0.x0.6                              -0.25181
xi0.x1.9                                    12
xi0.x1.7                           2.17667e-32
xi0.x1.8                           1.32628e-11
xi0.x1.4                                     0
xi0.x1.5                                    12
xi0.x1.10                                   12
xi0.x1.11                                   12
xi0.x1.6                                    12
v.xi0.x1.vfi1#branch                         0
v.xi0.x1.vfi2#branch               9.98318e-33
v.xi0.x0.vfi1#branch                         0
v.xi0.x0.vfi2#branch              -2.14977e-33
e.xi0.x1.ev16#branch                    -2e-10
e.xi0.x0.ev16#branch                   7.36593
v0#branch                           -0.0122681


No. of Data Rows : 307
CPU time since last call: 1.624 seconds.

Total CPU time: 1.624 seconds.

Total DRAM available = 15954.636719 MB.
DRAM currently available = 11711.257812 MB.
Total ngspice program size = 10.030273 MB.
Resident set size = 2.398438 MB.
Shared ngspice pages = 1.258789 MB.
Text (code) pages = 1.184570 MB.
Stack = 0 bytes.
Library pages = 6.018555 MB.

***** Operating Point Values (Generated from .op Statement) *****

                      n0 = 1.200e+01
                      vc1 = 1.200e+01
                      vout = 1.200e+01
                      xi0_n0 = 6.522e-02
                      vin = 6.522e-02
                      xi0_vc2 = 4.000e+00
                      xi0_vc1 = 4.000e+00
                      xi0_x0_9 = 6.522e-02
                      xi0_x0_7 = 4.000e+00
                      xi0_x0_8 = 1.319e-02
                      xi0_x0_4 = 0.000e+00
                      xi0_x0_5 = -2.518e-01
                      xi0_x0_10 = -3.935e+00
                      xi0_x0_11 = -2.518e-01
                      xi0_x0_6 = -2.518e-01
                      xi0_x1_9 = 6.522e-02
                      xi0_x1_7 = 4.000e+00
                      xi0_x1_8 = 1.319e-02
                      xi0_x1_4 = 0.000e+00
                      xi0_x1_5 = -2.518e-01
                      xi0_x1_10 = -3.935e+00
                      xi0_x1_11 = -2.518e-01
                      xi0_x1_6 = -2.518e-01
                      i_v_xi0_x1_vfi1 = 0.000e+00
                      i_v_xi0_x1_vfi2 = -2.150e-33
                      i_v_xi0_x0_vfi1 = 0.000e+00
                      i_v_xi0_x0_vfi2 = -2.150e-33
                      i_e_xi0_x1_ev16 = 7.366e+00
                      i_e_xi0_x0_ev16 = 7.366e+00
                      i_v0 = -2.414e-02

***************** End of Operating Point Values ******************
