
Circuit: ***** spice netlist for cell 'lab4_prelab1_sue' *****

Reducing trtol to 1 for xspice 'A' devices
Doing analysis at TEMP = 27.000000 and TNOM = 27.000000

No. of Data Columns : 30  

No. of Data Rows : 801
No. of Data Columns : 29  

No. of Data Rows : 1
CPU time since last call: 0.012 seconds.

Total CPU time: 0.012 seconds.

Total DRAM available = 15954.636719 MB.
DRAM currently available = 13347.589844 MB.
Total ngspice program size = 9.999023 MB.
Resident set size = 2.400391 MB.
Shared ngspice pages = 1.256836 MB.
Text (code) pages = 1.184570 MB.
Stack = 0 bytes.
Library pages = 5.987305 MB.

***** Operating Point Values (Generated from .op Statement) *****

                      vin = 0.000e+00
                      n0 = 1.097e-05
                      vout = 6.272e-05
                      n2 = -1.000e+01
                      n1 = 1.000e+01
                      xi0_11 = -9.655e+00
                      xi0_12 = -9.655e+00
                      xi0_6 = -9.335e-09
                      xi0_7 = 6.437e-05
                      xi0_53 = 7.800e+00
                      xi0_54 = -7.800e+00
                      xi0_90 = 1.101e-05
                      xi0_91 = 2.500e+01
                      xi0_92 = -2.500e+01
                      xi0_99 = 0.000e+00
                      xi0_10 = -3.986e-01
                      xi0_9 = 0.000e+00
                      xi0_8 = 6.437e-05
                      i_h_xi0_hlim = -3.083e-30
                      i_v_xi0_vlim = 1.101e-08
                      i_v_xi0_vln = -8.000e-16
                      i_v_xi0_vlp = -8.000e-16
                      i_v_xi0_ve = 8.000e-16
                      i_v_xi0_vc = 8.000e-16
                      i_v_xi0_vb = -9.335e-14
                      i_v0 = 1.097e-08
                      i_v1 = -9.528e-03
                      i_v2 = 9.528e-03
                      i_a$poly$e_xi0_egnd = -3.995e-07

***************** End of Operating Point Values ******************
