
Circuit: ***** spice netlist for cell 'lab5_prelab_sue' *****

Reducing trtol to 1 for xspice 'A' devices
Doing analysis at TEMP = 27.000000 and TNOM = 27.000000

No. of Data Columns : 49  

No. of Data Rows : 1
No. of Data Columns : 50  

Initial Transient Solution
--------------------------

Node                                   Voltage
----                                   -------
xi0.11                                0.345441
xi0.12                                0.345453
xi0.6                             -1.59953e-09
xi0.7                                  5.00001
vout1                                  5.00001
xi0.53                                     7.8
xi0.54                                     2.2
xi0.90                             1.13396e-06
xi0.91                                      25
xi0.92                                     -25
vsup                                        10
xi0.99                                       5
xi0.10                                 4.60141
n0                                           5
n1                                     4.99999
xi0.9                                        0
xi0.8                                  5.00001
xi1.11                                0.345441
xi1.12                                0.345453
xi1.6                               3.4064e-09
xi1.7                                  4.99998
vout2                                  4.99998
xi1.53                                     7.8
xi1.54                                     2.2
xi1.90                            -1.06387e-06
xi1.91                                      25
xi1.92                                     -25
xi1.99                                       5
xi1.10                                 4.60142
n2                                     5.00001
xi1.9                                        0
xi1.8                                  4.99998
h.xi1.hlim#branch                  2.71141e-31
v.xi1.vlim#branch                 -1.06387e-09
h.xi0.hlim#branch                 -2.11042e-31
v.xi0.vlim#branch                  1.13396e-09
v0#branch                           -0.0147227
v.xi1.vln#branch                        -8e-16
v.xi1.vlp#branch                        -8e-16
v.xi1.ve#branch                    7.99999e-16
v.xi1.vc#branch                    7.99999e-16
v.xi1.vb#branch                    3.40637e-14
v.xi0.vln#branch                        -8e-16
v.xi0.vlp#branch                        -8e-16
v.xi0.ve#branch                    7.99999e-16
v.xi0.vc#branch                    7.99999e-16
v.xi0.vb#branch                    -1.5995e-14
a$poly$e.xi1.egnd#branch_1_0      -3.87418e-07
a$poly$e.xi0.egnd#branch_1_0      -3.89626e-07


No. of Data Rows : 79168
CPU time since last call: 5.392 seconds.

Total CPU time: 5.392 seconds.

Total DRAM available = 15954.636719 MB.
DRAM currently available = 12014.113281 MB.
Total ngspice program size = 10.031250 MB.
Resident set size = 2.399414 MB.
Shared ngspice pages = 1.255859 MB.
Text (code) pages = 1.184570 MB.
Stack = 0 bytes.
Library pages = 6.019531 MB.

***** Operating Point Values (Generated from .op Statement) *****

                      xi0_11 = 3.454e-01
                      xi0_12 = 3.455e-01
                      xi0_6 = -1.600e-09
                      xi0_7 = 5.000e+00
                      vout1 = 5.000e+00
                      xi0_53 = 7.800e+00
                      xi0_54 = 2.200e+00
                      xi0_90 = 1.134e-06
                      xi0_91 = 2.500e+01
                      xi0_92 = -2.500e+01
                      vsup = 1.000e+01
                      xi0_99 = 5.000e+00
                      xi0_10 = 4.601e+00
                      n0 = 5.000e+00
                      n1 = 5.000e+00
                      xi0_9 = 0.000e+00
                      xi0_8 = 5.000e+00
                      xi1_11 = 3.454e-01
                      xi1_12 = 3.455e-01
                      xi1_6 = 3.406e-09
                      xi1_7 = 5.000e+00
                      vout2 = 5.000e+00
                      xi1_53 = 7.800e+00
                      xi1_54 = 2.200e+00
                      xi1_90 = -1.064e-06
                      xi1_91 = 2.500e+01
                      xi1_92 = -2.500e+01
                      xi1_99 = 5.000e+00
                      xi1_10 = 4.601e+00
                      n2 = 5.000e+00
                      xi1_9 = 0.000e+00
                      xi1_8 = 5.000e+00
                      i_h_xi1_hlim = 2.711e-31
                      i_v_xi1_vlim = -1.064e-09
                      i_h_xi0_hlim = -2.110e-31
                      i_v_xi0_vlim = 1.134e-09
                      i_v0 = -1.472e-02
                      i_v_xi1_vln = -8.000e-16
                      i_v_xi1_vlp = -8.000e-16
                      i_v_xi1_ve = 8.000e-16
                      i_v_xi1_vc = 8.000e-16
                      i_v_xi1_vb = 3.406e-14
                      i_v_xi0_vln = -8.000e-16
                      i_v_xi0_vlp = -8.000e-16
                      i_v_xi0_ve = 8.000e-16
                      i_v_xi0_vc = 8.000e-16
                      i_v_xi0_vb = -1.600e-14
                      i_a$poly$e_xi1_egnd = -3.874e-07
                      i_a$poly$e_xi0_egnd = -3.896e-07

***************** End of Operating Point Values ******************
