
Circuit: ***** spice netlist for cell 'lab2_sue' *****

Error on line 24 : c_f_i_l o(__`> a_0a=_b__d8 i1_
 unknown parameter (_b__d8) 
Doing analysis at TEMP = 27.000000 and TNOM = 27.000000

No. of Data Columns : 6  

DC solution failed -

Last Node Voltages
------------------

Node                                   Last Voltage        Previous Iter
----                                   ------------        -------------
n0                                                0                    0
va                                                0                    0
vb                                                0                    0
o(__`>                                            0                    0
a_0a                                              0                    0
v0#branch                                         0                    0

No. of Data Columns : 7  

Transient solution failed -

Last Node Voltages
------------------

Node                                   Last Voltage        Previous Iter
----                                   ------------        -------------
n0                                                0                    0
va                                                0                    0
vb                                                0                    0
o(__`>                                            0                    0
a_0a                                              0                    0
v0#branch                                         0                    0


CPU time since last call: 0.008 seconds.

Total CPU time: 0.008 seconds.

Total DRAM available = 15954.636719 MB.
DRAM currently available = 12071.660156 MB.
Total ngspice program size = 9.494141 MB.
Resident set size = 2.368164 MB.
Shared ngspice pages = 1.228516 MB.
Text (code) pages = 1.184570 MB.
Stack = 0 bytes.
Library pages = 5.986328 MB.

